Circuit: * C:\Users\holge\Desktop\github\Alexa_ringbell\ltspice\V2_simple_zener.asc

Direct Newton iteration for .op point succeeded.

Date: Mon May 23 21:25:11 2022
Total elapsed time: 0.069 seconds.

tnom = 27
temp = 27
method = modified trap
totiter = 3223
traniter = 3195
tranpoints = 1383
accept = 1273
rejected = 110
matrix size = 13
fillins = 0
solver = Normal
Matrix Compiler1: 656 bytes object code size  0.1/0.1/[0.1]
Matrix Compiler2: 959 bytes object code size  0.1/0.2/[0.1]

